8
Properties=species:S:1:pos:R:3 pbc="F F F"
C        0.00000000       0.00000000       0.76220900
C        0.00000000       0.00000000      -0.76220900
H        0.00000000       1.01895700       1.15722900
H       -0.88244300      -0.50947900       1.15722900
H        0.88244300      -0.50947900       1.15722900
H        0.00000000      -1.01895700      -1.15722900
H       -0.88244300       0.50947900      -1.15722900
H        0.88244300       0.50947900      -1.15722900
9
Properties=species:S:1:pos:R:3 pbc="F F F"
C        1.16818100      -0.40038200       0.00000000
C        0.00000000       0.55946200       0.00000000
O       -1.19008300      -0.22766900       0.00000000
H       -1.94662300       0.38152500       0.00000000
H        0.04255700       1.20750800       0.88693300
H        0.04255700       1.20750800      -0.88693300
H        2.11589100       0.14480000       0.00000000
H        1.12859900      -1.03723400       0.88588100
H        1.12859900      -1.03723400      -0.88588100
4
Properties=species:S:1:pos:R:3 pbc="F F F"
N        0.00000000       0.00000000       0.11648900
H        0.00000000       0.93973100      -0.27180800
H        0.81383100      -0.46986500      -0.27180800
H       -0.81383100      -0.46986500      -0.27180800
